feeders/1_REDE2_1/012_cargasMT_1_1.dss
New Load.MT_1606149_M1 bus1=358691.1.2.3.4 phases=3 conn=Delta model=2 kv=23.1 kw=15.044606 pf=0.92 daily=MT6_DU status=variable vmaxpu=1.5 vminpu=0.93
New Load.MT_1606149_M2 bus1=358691.1.2.3.4 phases=3 conn=Delta model=3 kv=23.1 kw=15.044606 pf=0.92 daily=MT6_DU status=variable vmaxpu=1.5 vminpu=0.93
New Load.MT_1609676_M1 bus1=337711.1.2.3.4 phases=3 conn=Delta model=2 kv=23.1 kw=42.6242135 pf=0.92 daily=MT1_DU status=variable vmaxpu=1.5 vminpu=0.93
New Load.MT_1609676_M2 bus1=337711.1.2.3.4 phases=3 conn=Delta model=3 kv=23.1 kw=42.6242135 pf=0.92 daily=MT1_DU status=variable vmaxpu=1.5 vminpu=0.93
New Load.MT_1650010_M1 bus1=302191.1.2.3.4 phases=3 conn=Delta model=2 kv=23.1 kw=3.5116015 pf=0.92 daily=MT3_DU status=variable vmaxpu=1.5 vminpu=0.93
New Load.MT_1650010_M2 bus1=302191.1.2.3.4 phases=3 conn=Delta model=3 kv=23.1 kw=3.5116015 pf=0.92 daily=MT3_DU status=variable vmaxpu=1.5 vminpu=0.93
New Load.MT_605900_M1 bus1=60651.1.2.3.4 phases=3 conn=Delta model=2 kv=23.1 kw=4.19274 pf=0.92 daily=MT5_DU status=variable vmaxpu=1.5 vminpu=0.93
New Load.MT_605900_M2 bus1=60651.1.2.3.4 phases=3 conn=Delta model=3 kv=23.1 kw=4.19274 pf=0.92 daily=MT5_DU status=variable vmaxpu=1.5 vminpu=0.93
New Load.MT_605961_M1 bus1=811221.1.2.3.4 phases=3 conn=Delta model=2 kv=23.1 kw=88.8911835 pf=0.92 daily=MT6_DU status=variable vmaxpu=1.5 vminpu=0.93
New Load.MT_605961_M2 bus1=811221.1.2.3.4 phases=3 conn=Delta model=3 kv=23.1 kw=88.8911835 pf=0.92 daily=MT6_DU status=variable vmaxpu=1.5 vminpu=0.93
New Load.MT_606116_M1 bus1=7721.1.2.3.4 phases=3 conn=Delta model=2 kv=23.1 kw=0.9751755 pf=0.92 daily=MT6_DU status=variable vmaxpu=1.5 vminpu=0.93
New Load.MT_606116_M2 bus1=7721.1.2.3.4 phases=3 conn=Delta model=3 kv=23.1 kw=0.9751755 pf=0.92 daily=MT6_DU status=variable vmaxpu=1.5 vminpu=0.93
New Load.MT_621177_M1 bus1=461501.1.2.3.4 phases=3 conn=Delta model=2 kv=23.1 kw=16.560722 pf=0.92 daily=MT4_DU status=variable vmaxpu=1.5 vminpu=0.93
New Load.MT_621177_M2 bus1=461501.1.2.3.4 phases=3 conn=Delta model=3 kv=23.1 kw=16.560722 pf=0.92 daily=MT4_DU status=variable vmaxpu=1.5 vminpu=0.93
New Load.MT_621223_M1 bus1=320841.1.2.3.4 phases=3 conn=Delta model=2 kv=23.1 kw=111.122947 pf=0.92 daily=MT6_DU status=variable vmaxpu=1.5 vminpu=0.93
New Load.MT_621223_M2 bus1=320841.1.2.3.4 phases=3 conn=Delta model=3 kv=23.1 kw=111.122947 pf=0.92 daily=MT6_DU status=variable vmaxpu=1.5 vminpu=0.93
New Load.MT_631851_M1 bus1=618431.1.2.3.4 phases=3 conn=Delta model=2 kv=23.1 kw=67.2198665 pf=0.92 daily=MT6_DU status=variable vmaxpu=1.5 vminpu=0.93
New Load.MT_631851_M2 bus1=618431.1.2.3.4 phases=3 conn=Delta model=3 kv=23.1 kw=67.2198665 pf=0.92 daily=MT6_DU status=variable vmaxpu=1.5 vminpu=0.93
New Load.MT_632606_M1 bus1=713791.1.2.3.4 phases=3 conn=Delta model=2 kv=23.1 kw=0.8178145 pf=0.92 daily=MT5_DU status=variable vmaxpu=1.5 vminpu=0.93
New Load.MT_632606_M2 bus1=713791.1.2.3.4 phases=3 conn=Delta model=3 kv=23.1 kw=0.8178145 pf=0.92 daily=MT5_DU status=variable vmaxpu=1.5 vminpu=0.93
New Load.MT_633008_M1 bus1=725731.1.2.3.4 phases=3 conn=Delta model=2 kv=23.1 kw=53.5738015 pf=0.92 daily=MT2_DU status=variable vmaxpu=1.5 vminpu=0.93
New Load.MT_633008_M2 bus1=725731.1.2.3.4 phases=3 conn=Delta model=3 kv=23.1 kw=53.5738015 pf=0.92 daily=MT2_DU status=variable vmaxpu=1.5 vminpu=0.93
New Load.MT_633983_M1 bus1=703601.1.2.3.4 phases=3 conn=Delta model=2 kv=23.1 kw=11.548751 pf=0.92 daily=MT3_DU status=variable vmaxpu=1.5 vminpu=0.93
New Load.MT_633983_M2 bus1=703601.1.2.3.4 phases=3 conn=Delta model=3 kv=23.1 kw=11.548751 pf=0.92 daily=MT3_DU status=variable vmaxpu=1.5 vminpu=0.93
New Load.MT_636069_M1 bus1=686891.1.2.3.4 phases=3 conn=Delta model=2 kv=23.1 kw=13.8654285 pf=0.92 daily=MT6_DU status=variable vmaxpu=1.5 vminpu=0.93
New Load.MT_636069_M2 bus1=686891.1.2.3.4 phases=3 conn=Delta model=3 kv=23.1 kw=13.8654285 pf=0.92 daily=MT6_DU status=variable vmaxpu=1.5 vminpu=0.93
New Load.MT_637810_M1 bus1=809501.1.2.3.4 phases=3 conn=Delta model=2 kv=23.1 kw=6.8028945 pf=0.92 daily=MT2_DU status=variable vmaxpu=1.5 vminpu=0.93
New Load.MT_637810_M2 bus1=809501.1.2.3.4 phases=3 conn=Delta model=3 kv=23.1 kw=6.8028945 pf=0.92 daily=MT2_DU status=variable vmaxpu=1.5 vminpu=0.93
New Load.MT_680000_M1 bus1=60721.1.2.3.4 phases=3 conn=Delta model=2 kv=23.1 kw=71.77476 pf=0.92 daily=MT5_DU status=variable vmaxpu=1.5 vminpu=0.93
New Load.MT_680000_M2 bus1=60721.1.2.3.4 phases=3 conn=Delta model=3 kv=23.1 kw=71.77476 pf=0.92 daily=MT5_DU status=variable vmaxpu=1.5 vminpu=0.93
New Load.MT_681000_M1 bus1=164151.1.2.3.4 phases=3 conn=Delta model=2 kv=23.1 kw=73.70876 pf=0.92 daily=MT2_DU status=variable vmaxpu=1.5 vminpu=0.93
New Load.MT_681000_M2 bus1=164151.1.2.3.4 phases=3 conn=Delta model=3 kv=23.1 kw=73.70876 pf=0.92 daily=MT2_DU status=variable vmaxpu=1.5 vminpu=0.93
